This is a test file.
New line.
DFDFDFDFDkjkjdljflkjdlkfj;lkjl;kja;lksjdfl;kajsd;lfkjal;sdkfj;alksdjf;adfjks
